# File generated by Flopy version 3.8.2 on 11/13/2024 at 11:39:52.
BEGIN Options
  TIME_UNITS  days
END Options

BEGIN Dimensions
  NPER  25
END Dimensions

BEGIN PERIODDATA
       1.00000000  1       1.00000000  TSMULT
      30.00000000  1       1.00000000  TSMULT
      30.00000000  1       1.00000000  TSMULT
      30.00000000  1       1.00000000  TSMULT
      30.00000000  1       1.00000000  TSMULT
      30.00000000  1       1.00000000  TSMULT
      30.00000000  1       1.00000000  TSMULT
      30.00000000  1       1.00000000  TSMULT
      30.00000000  1       1.00000000  TSMULT
      30.00000000  1       1.00000000  TSMULT
      30.00000000  1       1.00000000  TSMULT
      30.00000000  1       1.00000000  TSMULT
      30.00000000  1       1.00000000  TSMULT
      30.00000000  1       1.00000000  TSMULT
      30.00000000  1       1.00000000  TSMULT
      30.00000000  1       1.00000000  TSMULT
      30.00000000  1       1.00000000  TSMULT
      30.00000000  1       1.00000000  TSMULT
      30.00000000  1       1.00000000  TSMULT
      30.00000000  1       1.00000000  TSMULT
      30.00000000  1       1.00000000  TSMULT
      30.00000000  1       1.00000000  TSMULT
      30.00000000  1       1.00000000  TSMULT
      30.00000000  1       1.00000000  TSMULT
      30.00000000  1       1.00000000
END PERIODDATA

