# File generated by Flopy version 3.3.6 on 05/23/2024 at 12:03:13.
BEGIN options
END options

BEGIN continuous  FILEOUT  sfr.csv
    OPEN/CLOSE  'sfr.obs_continuous_sfr.csv.txt'
END continuous  FILEOUT  sfr.csv

